data_image0
_chemical_formula_structural       Si4C140S12H180
_chemical_formula_sum              "Si4 C140 S12 H180"
_cell_length_a       10.5389
_cell_length_b       17.7893
_cell_length_c       18.9721
_cell_angle_alpha    70.2181
_cell_angle_beta     82.0521
_cell_angle_gamma    86.4869

_space_group_name_H-M_alt    "P 1"
_space_group_IT_number       1

loop_
  _space_group_symop_operation_xyz
  'x, y, z'

loop_
  _atom_site_type_symbol
  _atom_site_label
  _atom_site_symmetry_multiplicity
  _atom_site_fract_x
  _atom_site_fract_y
  _atom_site_fract_z
  _atom_site_occupancy
  Si  Si1       1.0  0.39677  0.82812  0.18178  1.0000
  Si  Si2       1.0  0.60323  0.17188  0.81822  1.0000
  Si  Si3       1.0  0.09542  0.65867  0.83840  1.0000
  Si  Si4       1.0  0.90458  0.34133  0.16160  1.0000
  C   C1        1.0  0.27480  0.77250  0.42873  1.0000
  C   C2        1.0  0.72520  0.22750  0.57127  1.0000
  C   C3        1.0  0.28270  0.69200  0.47220  1.0000
  C   C4        1.0  0.71730  0.30800  0.52780  1.0000
  C   C5        1.0  0.31160  0.54380  0.52630  1.0000
  C   C6        1.0  0.68840  0.45620  0.47370  1.0000
  C   C7        1.0  0.27440  0.57970  0.57888  1.0000
  C   C8        1.0  0.72560  0.42030  0.42112  1.0000
  C   C9        1.0  0.26030  0.66350  0.55220  1.0000
  C   C10       1.0  0.73970  0.33650  0.44780  1.0000
  C   C11       1.0  0.22590  0.71750  0.59221  1.0000
  C   C12       1.0  0.77410  0.28250  0.40779  1.0000
  C   C13       1.0  0.21850  0.79800  0.54820  1.0000
  C   C14       1.0  0.78150  0.20200  0.45180  1.0000
  C   C15       1.0  0.18660  0.94660  0.49270  1.0000
  C   C16       1.0  0.81340  0.05340  0.50730  1.0000
  C   C17       1.0  0.22400  0.91000  0.44079  1.0000
  C   C18       1.0  0.77600  0.09000  0.55921  1.0000
  C   C19       1.0  0.24000  0.82620  0.46840  1.0000
  C   C20       1.0  0.76000  0.17380  0.53160  1.0000
  C   C21       1.0  0.32940  0.45910  0.53860  1.0000
  C   C22       1.0  0.67060  0.54090  0.46140  1.0000
  C   C23       1.0  0.35510  0.31100  0.59320  1.0000
  C   C24       1.0  0.64490  0.68900  0.40680  1.0000
  C   C25       1.0  0.36560  0.23030  0.63420  1.0000
  C   C26       1.0  0.63440  0.76970  0.36580  1.0000
  C   C27       1.0  0.40200  0.17780  0.59440  1.0000
  C   C28       1.0  0.59800  0.82220  0.40560  1.0000
  C   C29       1.0  0.41980  0.09350  0.62580  1.0000
  C   C30       1.0  0.58020  0.90650  0.37420  1.0000
  C   C31       1.0  0.45700  0.05970  0.57160  1.0000
  C   C32       1.0  0.54300  0.94030  0.42840  1.0000
  C   C33       1.0  0.42300  0.20660  0.51420  1.0000
  C   C34       1.0  0.57700  0.79340  0.48580  1.0000
  C   C35       1.0  0.41290  0.28780  0.47330  1.0000
  C   C36       1.0  0.58710  0.71220  0.52670  1.0000
  C   C37       1.0  0.38030  0.34030  0.51310  1.0000
  C   C38       1.0  0.61970  0.65970  0.48690  1.0000
  C   C39       1.0  0.36390  0.42535  0.48386  1.0000
  C   C40       1.0  0.63610  0.57465  0.51614  1.0000
  C   C41       1.0  0.16700  0.03170  0.47900  1.0000
  C   C42       1.0  0.83300  0.96830  0.52100  1.0000
  C   C43       1.0  0.14090  0.17980  0.41990  1.0000
  C   C44       1.0  0.85910  0.82020  0.58010  1.0000
  C   C45       1.0  0.13210  0.25950  0.37610  1.0000
  C   C46       1.0  0.86790  0.74050  0.62390  1.0000
  C   C47       1.0  0.09610  0.31390  0.41410  1.0000
  C   C48       1.0  0.90390  0.68610  0.58590  1.0000
  C   C49       1.0  0.08110  0.39750  0.38020  1.0000
  C   C50       1.0  0.91890  0.60250  0.61980  1.0000
  C   C51       1.0  0.04300  0.43530  0.43210  1.0000
  C   C52       1.0  0.95700  0.56470  0.56790  1.0000
  C   C53       1.0  0.06220  0.28750  0.49400  1.0000
  C   C54       1.0  0.93780  0.71250  0.50600  1.0000
  C   C55       1.0  0.07580  0.20710  0.53670  1.0000
  C   C56       1.0  0.92420  0.79290  0.46330  1.0000
  C   C57       1.0  0.11370  0.15250  0.50010  1.0000
  C   C58       1.0  0.88630  0.84750  0.49990  1.0000
  C   C59       1.0  0.12900  0.06762  0.53157  1.0000
  C   C60       1.0  0.87100  0.93238  0.46843  1.0000
  C   C61       1.0  0.30598  0.79251  0.34898  1.0000
  C   C62       1.0  0.69402  0.20749  0.65102  1.0000
  C   C63       1.0  0.33759  0.80731  0.28237  1.0000
  C   C64       1.0  0.66241  0.19269  0.71763  1.0000
  C   C65       1.0  0.47667  0.92718  0.14575  1.0000
  C   C66       1.0  0.52333  0.07282  0.85425  1.0000
  C   C67       1.0  0.38671  0.99674  0.15220  1.0000
  C   C68       1.0  0.61329  0.00326  0.84780  1.0000
  C   C69       1.0  0.44710  0.07949  0.11628  1.0000
  C   C70       1.0  0.55290  0.92051  0.88372  1.0000
  C   C71       1.0  0.54700  0.09739  0.15910  1.0000
  C   C72       1.0  0.45300  0.90261  0.84090  1.0000
  C   C73       1.0  0.49130  0.11376  0.23065  1.0000
  C   C74       1.0  0.50870  0.88624  0.76935  1.0000
  C   C75       1.0  0.59270  0.13228  0.27162  1.0000
  C   C76       1.0  0.40730  0.86772  0.72838  1.0000
  C   C77       1.0  0.25291  0.83041  0.13393  1.0000
  C   C78       1.0  0.74709  0.16959  0.86607  1.0000
  C   C79       1.0  0.27291  0.85996  0.04769  1.0000
  C   C80       1.0  0.72709  0.14004  0.95231  1.0000
  C   C81       1.0  0.15690  0.84816  0.01254  1.0000
  C   C82       1.0  0.84310  0.15184  0.98746  1.0000
  C   C83       1.0  0.03115  0.87876  0.04353  1.0000
  C   C84       1.0  0.96885  0.12124  0.95647  1.0000
  C   C85       1.0  0.91750  0.87172  0.00574  1.0000
  C   C86       1.0  0.08250  0.12828  0.99426  1.0000
  C   C87       1.0  0.79120  0.89208  0.04259  1.0000
  C   C88       1.0  0.20880  0.10792  0.95741  1.0000
  C   C89       1.0  0.50590  0.74240  0.17663  1.0000
  C   C90       1.0  0.49410  0.25760  0.82337  1.0000
  C   C91       1.0  0.43280  0.66370  0.19729  1.0000
  C   C92       1.0  0.56720  0.33630  0.80271  1.0000
  C   C93       1.0  0.51200  0.58798  0.21306  1.0000
  C   C94       1.0  0.48800  0.41202  0.78694  1.0000
  C   C95       1.0  0.43440  0.51403  0.22356  1.0000
  C   C96       1.0  0.56560  0.48597  0.77644  1.0000
  C   C97       1.0  0.50510  0.43613  0.24479  1.0000
  C   C98       1.0  0.49490  0.56387  0.75521  1.0000
  C   C99       1.0  0.42590  0.36685  0.25093  1.0000
  C   C100      1.0  0.57410  0.63315  0.74907  1.0000
  C   C101      1.0  0.19761  0.69688  0.67238  1.0000
  C   C102      1.0  0.80239  0.30312  0.32762  1.0000
  C   C103      1.0  0.16889  0.68059  0.73956  1.0000
  C   C104      1.0  0.83111  0.31941  0.26044  1.0000
  C   C105      1.0  0.04033  0.75662  0.84800  1.0000
  C   C106      1.0  0.95967  0.24338  0.15200  1.0000
  C   C107      1.0  0.94740  0.80420  0.79289  1.0000
  C   C108      1.0  0.05260  0.19580  0.20711  1.0000
  C   C109      1.0  0.91223  0.88760  0.79703  1.0000
  C   C110      1.0  0.08777  0.11240  0.20297  1.0000
  C   C111      1.0  0.02513  0.94278  0.77817  1.0000
  C   C112      1.0  0.97487  0.05722  0.22183  1.0000
  C   C113      1.0  0.98810  0.02792  0.77593  1.0000
  C   C114      1.0  0.01190  0.97208  0.22407  1.0000
  C   C115      1.0  0.10200  0.08101  0.76092  1.0000
  C   C116      1.0  0.89800  0.91899  0.23908  1.0000
  C   C117      1.0  0.21304  0.60849  0.90604  1.0000
  C   C118      1.0  0.78696  0.39151  0.09396  1.0000
  C   C119      1.0  0.32000  0.66131  0.90885  1.0000
  C   C120      1.0  0.68000  0.33869  0.09115  1.0000
  C   C121      1.0  0.42343  0.61543  0.95629  1.0000
  C   C122      1.0  0.57657  0.38457  0.04371  1.0000
  C   C123      1.0  0.52920  0.66859  0.95970  1.0000
  C   C124      1.0  0.47080  0.33141  0.04030  1.0000
  C   C125      1.0  0.64100  0.62221  0.99654  1.0000
  C   C126      1.0  0.35900  0.37779  0.00346  1.0000
  C   C127      1.0  0.74340  0.67648  0.00212  1.0000
  C   C128      1.0  0.25660  0.32352  0.99788  1.0000
  C   C129      1.0  0.96250  0.58832  0.85266  1.0000
  C   C130      1.0  0.03750  0.41168  0.14734  1.0000
  C   C131      1.0  0.01030  0.50869  0.84200  1.0000
  C   C132      1.0  0.98970  0.49131  0.15800  1.0000
  C   C133      1.0  0.90350  0.45190  0.85099  1.0000
  C   C134      1.0  0.09650  0.54810  0.14901  1.0000
  C   C135      1.0  0.95590  0.37371  0.83640  1.0000
  C   C136      1.0  0.04410  0.62629  0.16360  1.0000
  C   C137      1.0  0.99720  0.38273  0.75490  1.0000
  C   C138      1.0  0.00280  0.61727  0.24510  1.0000
  C   C139      1.0  0.04190  0.30310  0.74410  1.0000
  C   C140      1.0  0.95810  0.69690  0.25590  1.0000
  S   S1        1.0  0.32422  0.61505  0.43595  1.0000
  S   S2        1.0  0.67578  0.38495  0.56405  1.0000
  S   S3        1.0  0.17875  0.87642  0.58375  1.0000
  S   S4        1.0  0.82125  0.12358  0.41625  1.0000
  S   S5        1.0  0.31423  0.38863  0.62872  1.0000
  S   S6        1.0  0.68577  0.61137  0.37128  1.0000
  S   S7        1.0  0.46549  0.12812  0.48113  1.0000
  S   S8        1.0  0.53451  0.87188  0.51887  1.0000
  S   S9        1.0  0.18441  0.10001  0.38744  1.0000
  S   S10       1.0  0.81559  0.89999  0.61256  1.0000
  S   S11       1.0  0.02829  0.36901  0.52366  1.0000
  S   S12       1.0  0.97171  0.63099  0.47634  1.0000
  H   H1        1.0  0.25990  0.54987  0.63123  1.0000
  H   H2        1.0  0.74010  0.45013  0.36877  1.0000
  H   H3        1.0  0.23406  0.93892  0.38816  1.0000
  H   H4        1.0  0.76594  0.06108  0.61184  1.0000
  H   H5        1.0  0.34830  0.21140  0.68770  1.0000
  H   H6        1.0  0.65170  0.78860  0.31230  1.0000
  H   H7        1.0  0.40700  0.06440  0.67830  1.0000
  H   H8        1.0  0.59300  0.93560  0.32170  1.0000
  H   H9        1.0  0.47650  0.00440  0.58230  1.0000
  H   H10       1.0  0.52350  0.99560  0.41770  1.0000
  H   H11       1.0  0.42770  0.30660  0.41970  1.0000
  H   H12       1.0  0.57230  0.69340  0.58030  1.0000
  H   H13       1.0  0.37580  0.45530  0.43150  1.0000
  H   H14       1.0  0.62420  0.54470  0.56850  1.0000
  H   H15       1.0  0.14990  0.27640  0.32260  1.0000
  H   H16       1.0  0.85010  0.72360  0.67740  1.0000
  H   H17       1.0  0.09570  0.42460  0.32730  1.0000
  H   H18       1.0  0.90430  0.57540  0.67270  1.0000
  H   H19       1.0  0.02670  0.49120  0.41930  1.0000
  H   H20       1.0  0.97330  0.50880  0.58070  1.0000
  H   H21       1.0  0.05920  0.19010  0.59030  1.0000
  H   H22       1.0  0.94080  0.80990  0.40970  1.0000
  H   H23       1.0  0.11410  0.03910  0.58420  1.0000
  H   H24       1.0  0.88590  0.96090  0.41580  1.0000
  H   H25       1.0  0.54960  0.92450  0.17440  1.0000
  H   H26       1.0  0.45040  0.07550  0.82560  1.0000
  H   H27       1.0  0.51170  0.93820  0.09210  1.0000
  H   H28       1.0  0.48830  0.06180  0.90790  1.0000
  H   H29       1.0  0.30970  0.99600  0.12790  1.0000
  H   H30       1.0  0.69030  0.00400  0.87210  1.0000
  H   H31       1.0  0.35820  0.98800  0.20630  1.0000
  H   H32       1.0  0.64180  0.01200  0.79370  1.0000
  H   H33       1.0  0.48770  0.08460  0.06460  1.0000
  H   H34       1.0  0.51230  0.91540  0.93540  1.0000
  H   H35       1.0  0.37790  0.12050  0.11160  1.0000
  H   H36       1.0  0.62210  0.87950  0.88840  1.0000
  H   H37       1.0  0.60750  0.05140  0.17240  1.0000
  H   H38       1.0  0.39250  0.94860  0.82760  1.0000
  H   H39       1.0  0.59650  0.14440  0.12530  1.0000
  H   H40       1.0  0.40350  0.85560  0.87470  1.0000
  H   H41       1.0  0.44290  0.06650  0.26490  1.0000
  H   H42       1.0  0.55710  0.93350  0.73510  1.0000
  H   H43       1.0  0.43030  0.15950  0.21770  1.0000
  H   H44       1.0  0.56970  0.84050  0.78230  1.0000
  H   H45       1.0  0.65090  0.08620  0.28690  1.0000
  H   H46       1.0  0.34910  0.91380  0.71310  1.0000
  H   H47       1.0  0.55130  0.14380  0.31650  1.0000
  H   H48       1.0  0.44870  0.85620  0.68350  1.0000
  H   H49       1.0  0.64130  0.17890  0.23790  1.0000
  H   H50       1.0  0.35870  0.82110  0.76210  1.0000
  H   H51       1.0  0.21840  0.77570  0.15160  1.0000
  H   H52       1.0  0.78160  0.22430  0.84840  1.0000
  H   H53       1.0  0.18670  0.86490  0.15050  1.0000
  H   H54       1.0  0.81330  0.13510  0.84950  1.0000
  H   H55       1.0  0.34760  0.83130  0.03040  1.0000
  H   H56       1.0  0.65240  0.16870  0.96960  1.0000
  H   H57       1.0  0.29320  0.91750  0.02920  1.0000
  H   H58       1.0  0.70680  0.08250  0.97080  1.0000
  H   H59       1.0  0.17200  0.87590  0.95730  1.0000
  H   H60       1.0  0.82800  0.12410  0.04270  1.0000
  H   H61       1.0  0.14900  0.79050  0.02110  1.0000
  H   H62       1.0  0.85100  0.20950  0.97890  1.0000
  H   H63       1.0  0.01340  0.84860  0.09820  1.0000
  H   H64       1.0  0.98660  0.15140  0.90180  1.0000
  H   H65       1.0  0.04080  0.93560  0.03780  1.0000
  H   H66       1.0  0.95920  0.06440  0.96220  1.0000
  H   H67       1.0  0.93020  0.90750  0.95250  1.0000
  H   H68       1.0  0.06980  0.09250  0.04750  1.0000
  H   H69       1.0  0.91470  0.81630  0.00550  1.0000
  H   H70       1.0  0.08530  0.18370  0.99450  1.0000
  H   H71       1.0  0.77350  0.85350  0.09370  1.0000
  H   H72       1.0  0.22650  0.14650  0.90630  1.0000
  H   H73       1.0  0.72330  0.89000  0.01290  1.0000
  H   H74       1.0  0.27670  0.11000  0.98710  1.0000
  H   H75       1.0  0.79420  0.94600  0.04530  1.0000
  H   H76       1.0  0.20580  0.05400  0.95470  1.0000
  H   H77       1.0  0.55150  0.75530  0.12480  1.0000
  H   H78       1.0  0.44850  0.24470  0.87520  1.0000
  H   H79       1.0  0.57080  0.73500  0.21160  1.0000
  H   H80       1.0  0.42920  0.26500  0.78840  1.0000
  H   H81       1.0  0.37010  0.65910  0.24250  1.0000
  H   H82       1.0  0.62990  0.34090  0.75750  1.0000
  H   H83       1.0  0.38350  0.66760  0.15540  1.0000
  H   H84       1.0  0.61650  0.33240  0.84460  1.0000
  H   H85       1.0  0.55250  0.57950  0.25930  1.0000
  H   H86       1.0  0.44750  0.42050  0.74070  1.0000
  H   H87       1.0  0.58140  0.59420  0.17070  1.0000
  H   H88       1.0  0.41860  0.40580  0.82930  1.0000
  H   H89       1.0  0.36100  0.51100  0.26300  1.0000
  H   H90       1.0  0.63900  0.48900  0.73700  1.0000
  H   H91       1.0  0.39910  0.52160  0.17590  1.0000
  H   H92       1.0  0.60090  0.47840  0.82410  1.0000
  H   H93       1.0  0.53680  0.42670  0.29380  1.0000
  H   H94       1.0  0.46320  0.57330  0.70620  1.0000
  H   H95       1.0  0.58050  0.43920  0.20660  1.0000
  H   H96       1.0  0.41950  0.56080  0.79340  1.0000
  H   H97       1.0  0.35230  0.36230  0.28980  1.0000
  H   H98       1.0  0.64770  0.63770  0.71020  1.0000
  H   H99       1.0  0.47800  0.31770  0.26480  1.0000
  H   H100      1.0  0.52200  0.68230  0.73520  1.0000
  H   H101      1.0  0.39550  0.37510  0.20230  1.0000
  H   H102      1.0  0.60450  0.62490  0.79770  1.0000
  H   H103      1.0  0.99810  0.74710  0.90020  1.0000
  H   H104      1.0  0.00190  0.25290  0.09980  1.0000
  H   H105      1.0  0.11640  0.78970  0.84070  1.0000
  H   H106      1.0  0.88360  0.21030  0.15930  1.0000
  H   H107      1.0  0.98640  0.80980  0.74080  1.0000
  H   H108      1.0  0.01360  0.19020  0.25920  1.0000
  H   H109      1.0  0.86780  0.77340  0.80330  1.0000
  H   H110      1.0  0.13220  0.22660  0.19670  1.0000
  H   H111      1.0  0.84870  0.91260  0.76170  1.0000
  H   H112      1.0  0.15130  0.08740  0.23830  1.0000
  H   H113      1.0  0.87080  0.88200  0.84860  1.0000
  H   H114      1.0  0.12920  0.11800  0.15140  1.0000
  H   H115      1.0  0.07100  0.94480  0.72840  1.0000
  H   H116      1.0  0.92900  0.05520  0.27160  1.0000
  H   H117      1.0  0.08510  0.92010  0.81620  1.0000
  H   H118      1.0  0.91490  0.07990  0.18380  1.0000
  H   H119      1.0  0.93190  0.05170  0.73610  1.0000
  H   H120      1.0  0.06810  0.94830  0.26390  1.0000
  H   H121      1.0  0.93860  0.02590  0.82480  1.0000
  H   H122      1.0  0.06140  0.97410  0.17520  1.0000
  H   H123      1.0  0.15540  0.05970  0.80190  1.0000
  H   H124      1.0  0.84460  0.94030  0.19810  1.0000
  H   H125      1.0  0.07220  0.13510  0.75810  1.0000
  H   H126      1.0  0.92780  0.86490  0.24190  1.0000
  H   H127      1.0  0.15240  0.08270  0.71300  1.0000
  H   H128      1.0  0.84760  0.91730  0.28700  1.0000
  H   H129      1.0  0.16550  0.58700  0.95730  1.0000
  H   H130      1.0  0.83450  0.41300  0.04270  1.0000
  H   H131      1.0  0.25270  0.56250  0.89240  1.0000
  H   H132      1.0  0.74730  0.43750  0.10760  1.0000
  H   H133      1.0  0.36040  0.68880  0.85670  1.0000
  H   H134      1.0  0.63960  0.31120  0.14330  1.0000
  H   H135      1.0  0.28200  0.70280  0.92980  1.0000
  H   H136      1.0  0.71800  0.29720  0.07020  1.0000
  H   H137      1.0  0.46230  0.57440  0.93500  1.0000
  H   H138      1.0  0.53770  0.42560  0.06500  1.0000
  H   H139      1.0  0.38290  0.58740  0.00830  1.0000
  H   H140      1.0  0.61710  0.41260  0.99170  1.0000
  H   H141      1.0  0.56050  0.70280  0.90770  1.0000
  H   H142      1.0  0.43950  0.29720  0.09230  1.0000
  H   H143      1.0  0.49260  0.70410  0.98810  1.0000
  H   H144      1.0  0.50740  0.29590  0.01190  1.0000
  H   H145      1.0  0.68010  0.58840  0.96700  1.0000
  H   H146      1.0  0.31990  0.41160  0.03300  1.0000
  H   H147      1.0  0.60950  0.58650  0.04790  1.0000
  H   H148      1.0  0.39050  0.41350  0.95210  1.0000
  H   H149      1.0  0.77280  0.71330  0.95170  1.0000
  H   H150      1.0  0.22720  0.28670  0.04830  1.0000
  H   H151      1.0  0.81600  0.64380  0.02360  1.0000
  H   H152      1.0  0.18400  0.35620  0.97640  1.0000
  H   H153      1.0  0.70710  0.70710  0.03470  1.0000
  H   H154      1.0  0.29290  0.29290  0.96530  1.0000
  H   H155      1.0  0.91670  0.57720  0.90420  1.0000
  H   H156      1.0  0.08330  0.42280  0.09580  1.0000
  H   H157      1.0  0.90080  0.61410  0.81640  1.0000
  H   H158      1.0  0.09920  0.38590  0.18360  1.0000
  H   H159      1.0  0.05860  0.52010  0.79100  1.0000
  H   H160      1.0  0.94140  0.47990  0.20900  1.0000
  H   H161      1.0  0.07000  0.48230  0.87930  1.0000
  H   H162      1.0  0.93000  0.51770  0.12070  1.0000
  H   H163      1.0  0.84170  0.47860  0.81510  1.0000
  H   H164      1.0  0.15830  0.52140  0.18490  1.0000
  H   H165      1.0  0.85740  0.43810  0.90280  1.0000
  H   H166      1.0  0.14260  0.56190  0.09720  1.0000
  H   H167      1.0  0.02980  0.35350  0.86490  1.0000
  H   H168      1.0  0.97020  0.64650  0.13510  1.0000
  H   H169      1.0  0.88840  0.33280  0.85670  1.0000
  H   H170      1.0  0.11160  0.66720  0.14330  1.0000
  H   H171      1.0  0.06810  0.42130  0.73480  1.0000
  H   H172      1.0  0.93190  0.57870  0.26520  1.0000
  H   H173      1.0  0.92470  0.40480  0.72560  1.0000
  H   H174      1.0  0.07530  0.59520  0.27440  1.0000
  H   H175      1.0  0.11080  0.27980  0.77500  1.0000
  H   H176      1.0  0.88920  0.72020  0.22500  1.0000
  H   H177      1.0  0.07340  0.31250  0.69090  1.0000
  H   H178      1.0  0.92660  0.68750  0.30910  1.0000
  H   H179      1.0  0.96980  0.26630  0.75970  1.0000
  H   H180      1.0  0.03020  0.73370  0.24030  1.0000
